  
       XFOIL         Version 6.99
  
 Calculated polar for: NACA 2412                                       
  
 1 1 Reynolds number fixed          Mach number fixed         
  
 xtrf =   1.000 (top)        1.000 (bottom)  
 Mach =   0.000     Re =     3.307 e 6     Ncrit =   9.000
  
   alpha    CL        CD       CDp       CM     Top_Xtr  Bot_Xtr
  ------ -------- --------- --------- -------- -------- --------
  -6.000  -0.4329   0.00712   0.00235  -0.0527   0.8676   0.0356
  -5.000  -0.3211   0.00667   0.00184  -0.0525   0.8214   0.0494
  -4.000  -0.2087   0.00632   0.00143  -0.0524   0.7661   0.0722
  -3.000  -0.0960   0.00600   0.00111  -0.0524   0.7050   0.1141
  -2.000   0.0167   0.00577   0.00091  -0.0525   0.6402   0.1775
  -1.000   0.1297   0.00560   0.00080  -0.0526   0.5764   0.2623
  -0.000   0.2425   0.00546   0.00078  -0.0528   0.5168   0.3754
   1.000   0.3544   0.00519   0.00085  -0.0528   0.4656   0.5571
   3.000   0.5752   0.00517   0.00128  -0.0521   0.3537   0.8712
   4.000   0.6777   0.00567   0.00170  -0.0498   0.2737   0.9708
   6.000   0.9119   0.00781   0.00301  -0.0531   0.1007   1.0000
   7.000   1.0101   0.00880   0.00378  -0.0506   0.0612   1.0000
   8.000   1.1113   0.00982   0.00464  -0.0489   0.0396   1.0000
   9.000   1.2119   0.01087   0.00560  -0.0473   0.0283   1.0000
  10.000   1.3096   0.01204   0.00672  -0.0453   0.0213   1.0000
  11.000   1.4036   0.01333   0.00802  -0.0428   0.0171   1.0000
  12.000   1.4920   0.01478   0.00949  -0.0396   0.0143   1.0000
  13.000   1.5717   0.01633   0.01110  -0.0351   0.0128   1.0000
  14.000   1.6318   0.01845   0.01332  -0.0278   0.0113   1.0000
  15.000   1.6875   0.02107   0.01606  -0.0213   0.0103   1.0000
  16.000   1.7259   0.02531   0.02046  -0.0148   0.0091   1.0000
  17.000   1.7617   0.03048   0.02582  -0.0104   0.0087   1.0000
  18.000   1.7805   0.03807   0.03363  -0.0077   0.0083   1.0000
  19.000   1.7775   0.04915   0.04498  -0.0074   0.0078   1.0000
  20.000   1.7421   0.06574   0.06193  -0.0106   0.0072   1.0000
